# generated using pymatgen
data_MoSeS
_symmetry_space_group_name_H-M   'P 1'
_cell_length_a   25.52252560
_cell_length_b   25.52252560
_cell_length_c   14.87900400
_cell_angle_alpha   90.00000000
_cell_angle_beta   90.00000000
_cell_angle_gamma   120.00000000
_symmetry_Int_Tables_number   1
_chemical_formula_structural   MoSeS
_chemical_formula_sum   'Mo1 Se1 S1'
_cell_volume   8393.66802181
_cell_formula_units_Z   1
loop_
 _symmetry_equiv_pos_site_id
 _symmetry_equiv_pos_as_xyz
  1  'x, y, z'
loop_
 _atom_site_type_symbol
 _atom_site_label
 _atom_site_symmetry_multiplicity
 _atom_site_fract_x
 _atom_site_fract_y
 _atom_site_fract_z
 _atom_site_occupancy
  Se  Se0  1  0.20833333  0.16666667  0.35517400  1.0
  S  S1  1  0.45833333  0.79166667  0.14482600  1
  Mo  Mo2  1  0.29166667  0.20833333  0.25000000  1
